MORE FUNCTIONS AND NESTED LOOP EXERCISES

0-isupper.c:  checks for uppercase character.

1-isdigit.c: checks for a digit (0 through 9).

2-mul.c: function that multiplies two integers.

3-print_numbers.c: function that prints the numbers, from 0 to 9, followed by a
new line.

4-print_most_numbers.c: function that prints the numbers, from 0 to 9, followed
by a new line. SKIPPS 2

